PyDSS/api/src/tmp/2a721874-1fa2-4206-ba9b-0a377f6ab3a9_distribution_federate/Lines.dss
New Line.l(r:p6udt124lv-p6ulv245) Units=km Length=0.014477 bus1=p6udt124lv.1.2 bus2=p6ulv245.1.2 switch=n enabled=y phases=2 Linecode=1P_UG_AL_1/0_Brenau_2

New Line.l(r:p6udm262-p6ulv246) Units=km Length=0.0170971 bus1=p6udm262.1.2 bus2=p6ulv246.1.2 switch=n enabled=y phases=2 Linecode=1P_UG_AL_1/0_Brenau_2

New Line.l(r:p6udm263-p6ulv247) Units=km Length=0.0123727 bus1=p6udm263.1.2 bus2=p6ulv247.1.2 switch=n enabled=y phases=2 Linecode=1P_UG_AL_1/0_Brenau_2

New Line.l(r:p6udm264-p6ulv248) Units=km Length=0.00724852 bus1=p6udm264.1.2 bus2=p6ulv248.1.2 switch=n enabled=y phases=2 Linecode=1P_UG_AL_1/0_Brenau_2

New Line.l(r:p6udm263-p6udm264) Units=km Length=0.022401 bus1=p6udm263.1.2 bus2=p6udm264.1.2 switch=n enabled=y phases=2 Linecode=1P_UG_AL_1/0_Brenau_2

New Line.l(r:p6udm262-p6udm263) Units=km Length=0.0185008 bus1=p6udm262.1.2 bus2=p6udm263.1.2 switch=n enabled=y phases=2 Linecode=1P_UG_AL_1/0_Brenau_2

New Line.l(r:p6udm262-p6udt124lv) Units=km Length=0.0173055 bus1=p6udt124lv.1.2 bus2=p6udm262.1.2 switch=n enabled=y phases=2 Linecode=1P_UG_AL_1/0_Brenau_2

New Line.l(r:p6udm265-p6ulv7674) Units=km Length=0.015856 bus1=p6udm265.1.2 bus2=p6ulv7674.1.2 switch=n enabled=y phases=2 Linecode=1P_UG_AL_1/0_Brenau_2

New Line.l(r:p6udm266-p6ulv7675) Units=km Length=0.0161225 bus1=p6udm266.1.2 bus2=p6ulv7675.1.2 switch=n enabled=y phases=2 Linecode=1P_UG_AL_1/0_Brenau_2

New Line.l(r:p6udm265-p6udm266) Units=km Length=0.0177963 bus1=p6udm265.1.2 bus2=p6udm266.1.2 switch=n enabled=y phases=2 Linecode=1P_UG_AL_1/0_Brenau_2

New Line.l(r:p6udm265-p6udt124lv) Units=km Length=0.026903 bus1=p6udt124lv.1.2 bus2=p6udm265.1.2 switch=n enabled=y phases=2 Linecode=1P_UG_AL_1/0_Brenau_2

New Line.l(r:p6udm267-p6ulv249) Units=km Length=0.00185348 bus1=p6udm267.1.2 bus2=p6ulv249.1.2 switch=n enabled=y phases=2 Linecode=1P_UG_AL_1/0_Brenau_2

New Line.l(r:p6udm267-p6ulv250) Units=km Length=0.0153101 bus1=p6udm267.1.2 bus2=p6ulv250.1.2 switch=n enabled=y phases=2 Linecode=1P_UG_AL_1/0_Brenau_2

New Line.l(r:p6udm267-p6udt125lv) Units=km Length=0.0483095 bus1=p6udt125lv.1.2 bus2=p6udm267.1.2 switch=n enabled=y phases=2 Linecode=1P_UG_AL_1/0_Brenau_2

New Line.l(r:p6udm269-p6ulv5193) Units=km Length=0.00986471 bus1=p6udm269.1.2 bus2=p6ulv5193.1.2 switch=n enabled=y phases=2 Linecode=1P_UG_AL_1/0_Brenau_2

New Line.l(r:p6udm269-p6ulv5200) Units=km Length=0.015759 bus1=p6udm269.1.2 bus2=p6ulv5200.1.2 switch=n enabled=y phases=2 Linecode=1P_UG_AL_1/0_Brenau_2

New Line.l(r:p6udm271-p6ulv5196) Units=km Length=0.0110572 bus1=p6udm271.1.2 bus2=p6ulv5196.1.2 switch=n enabled=y phases=2 Linecode=1P_UG_AL_1/0_Brenau_2

New Line.l(r:p6udm270-p6ulv5195) Units=km Length=0.0128642 bus1=p6udm270.1.2 bus2=p6ulv5195.1.2 switch=n enabled=y phases=2 Linecode=1P_UG_AL_1/0_Brenau_2

New Line.l(r:p6udm270-p6udm271) Units=km Length=0.0164633 bus1=p6udm271.1.2 bus2=p6udm270.1.2 switch=n enabled=y phases=2 Linecode=1P_UG_AL_1/0_Brenau_2

New Line.l(r:p6udm269-p6udm271) Units=km Length=0.00760348 bus1=p6udm269.1.2 bus2=p6udm271.1.2 switch=n enabled=y phases=2 Linecode=1P_UG_AL_1/0_Brenau_2

New Line.l(r:p6udm269-p6udt125lv) Units=km Length=0.014310500000000002 bus1=p6udt125lv.1.2 bus2=p6udm269.1.2 switch=n enabled=y phases=2 Linecode=1P_UG_AL_1/0_Brenau_2

New Line.l(r:p6udt126lv-p6ulv252) Units=km Length=0.00884977 bus1=p6udt126lv.1.2 bus2=p6ulv252.1.2 switch=n enabled=y phases=2 Linecode=1P_UG_AL_1/0_Brenau_2

New Line.l(r:p6udm275-p6ulv253) Units=km Length=0.011175 bus1=p6udm275.1.2 bus2=p6ulv253.1.2 switch=n enabled=y phases=2 Linecode=1P_UG_AL_1/0_Brenau_2

New Line.l(r:p6udm276-p6ulv254) Units=km Length=0.014227100000000001 bus1=p6udm276.1.2 bus2=p6ulv254.1.2 switch=n enabled=y phases=2 Linecode=1P_UG_AL_1/0_Brenau_2

New Line.l(r:p6udm279-p6ulv258) Units=km Length=0.0132583 bus1=p6udm279.1.2 bus2=p6ulv258.1.2 switch=n enabled=y phases=2 Linecode=1P_UG_AL_1/0_Brenau_2

New Line.l(r:p6udm276-p6udm279) Units=km Length=0.0504119 bus1=p6udm276.1.2 bus2=p6udm279.1.2 switch=n enabled=y phases=2 Linecode=1P_UG_AL_1/0_Brenau_2

New Line.l(r:p6udm275-p6udm276) Units=km Length=0.00492367 bus1=p6udm275.1.2 bus2=p6udm276.1.2 switch=n enabled=y phases=2 Linecode=1P_UG_AL_1/0_Brenau_2

New Line.l(r:p6udm275-p6udt126lv) Units=km Length=0.021003600000000004 bus1=p6udt126lv.1.2 bus2=p6udm275.1.2 switch=n enabled=y phases=2 Linecode=1P_UG_AL_1/0_Brenau_2

New Line.l(r:p6udm277-p6ulv255) Units=km Length=0.00985091 bus1=p6udm277.1.2 bus2=p6ulv255.1.2 switch=n enabled=y phases=2 Linecode=1P_UG_AL_1/0_Brenau_2

New Line.l(r:p6udm273-p6ulv251) Units=km Length=0.0166032 bus1=p6udm273.1.2 bus2=p6ulv251.1.2 switch=n enabled=y phases=2 Linecode=1P_UG_AL_1/0_Brenau_2

New Line.l(r:p6udm273-p6ulv256) Units=km Length=0.0144693 bus1=p6udm273.1.2 bus2=p6ulv256.1.2 switch=n enabled=y phases=2 Linecode=1P_UG_AL_1/0_Brenau_2

New Line.l(r:p6udm273-p6udm277) Units=km Length=0.0187946 bus1=p6udm277.1.2 bus2=p6udm273.1.2 switch=n enabled=y phases=2 Linecode=1P_UG_AL_1/0_Brenau_2

New Line.l(r:p6udm277-p6udt126lv) Units=km Length=0.0085258 bus1=p6udt126lv.1.2 bus2=p6udm277.1.2 switch=n enabled=y phases=2 Linecode=1P_UG_AL_1/0_Brenau_2

New Line.l(r:p6udm283-p6ulv5203) Units=km Length=0.004224040000000001 bus1=p6udm283.1.2 bus2=p6ulv5203.1.2 switch=n enabled=y phases=2 Linecode=1P_UG_AL_1/0_Brenau_2

New Line.l(r:p6udm283-p6ulv11775) Units=km Length=0.00606786 bus1=p6udm283.1.2 bus2=p6ulv11775.1.2 switch=n enabled=y phases=2 Linecode=1P_UG_AL_1/0_Brenau_2

New Line.l(r:p6udm280-p6ulv257) Units=km Length=0.00833319 bus1=p6udm280.1.2 bus2=p6ulv257.1.2 switch=n enabled=y phases=2 Linecode=1P_UG_AL_1/0_Brenau_2

New Line.l(r:p6udm281-p6ulv433) Units=km Length=0.00665688 bus1=p6udm281.1.2 bus2=p6ulv433.1.2 switch=n enabled=y phases=2 Linecode=1P_UG_AL_1/0_Brenau_2

New Line.l(r:p6udm284-p6ulv5204) Units=km Length=0.007541170000000001 bus1=p6udm284.1.2 bus2=p6ulv5204.1.2 switch=n enabled=y phases=2 Linecode=1P_UG_AL_1/0_Brenau_2

New Line.l(r:p6udm281-p6udm284) Units=km Length=0.029110600000000004 bus1=p6udm281.1.2 bus2=p6udm284.1.2 switch=n enabled=y phases=2 Linecode=1P_UG_AL_1/0_Brenau_2

New Line.l(r:p6udm280-p6udm281) Units=km Length=0.0105317 bus1=p6udm280.1.2 bus2=p6udm281.1.2 switch=n enabled=y phases=2 Linecode=1P_UG_AL_1/0_Brenau_2

New Line.l(r:p6udm280-p6udm283) Units=km Length=0.0194172 bus1=p6udm283.1.2 bus2=p6udm280.1.2 switch=n enabled=y phases=2 Linecode=1P_UG_AL_1/0_Brenau_2

New Line.l(r:p6udm283-p6udt127lv) Units=km Length=0.0194267 bus1=p6udt127lv.1.2 bus2=p6udm283.1.2 switch=n enabled=y phases=2 Linecode=1P_UG_AL_1/0_Brenau_2

New Line.l(r:p6udm287-p6ulv11774) Units=km Length=0.0035101 bus1=p6udm287.1.2 bus2=p6ulv11774.1.2 switch=n enabled=y phases=2 Linecode=1P_UG_AL_1/0_Brenau_2

New Line.l(r:p6udm282-p6ulv5202) Units=km Length=0.00656111 bus1=p6udm282.1.2 bus2=p6ulv5202.1.2 switch=n enabled=y phases=2 Linecode=1P_UG_AL_1/0_Brenau_2

New Line.l(r:p6udm286-p6ulv11773) Units=km Length=0.00444401 bus1=p6udm286.1.2 bus2=p6ulv11773.1.2 switch=n enabled=y phases=2 Linecode=1P_UG_AL_1/0_Brenau_2

New Line.l(r:p6udm285-p6ulv11772) Units=km Length=0.0120265 bus1=p6udm285.1.2 bus2=p6ulv11772.1.2 switch=n enabled=y phases=2 Linecode=1P_UG_AL_1/0_Brenau_2

New Line.l(r:p6udm285-p6udm286) Units=km Length=0.0199786 bus1=p6udm286.1.2 bus2=p6udm285.1.2 switch=n enabled=y phases=2 Linecode=1P_UG_AL_1/0_Brenau_2

New Line.l(r:p6udm282-p6udm286) Units=km Length=0.0396854 bus1=p6udm282.1.2 bus2=p6udm286.1.2 switch=n enabled=y phases=2 Linecode=1P_UG_AL_1/0_Brenau_2

New Line.l(r:p6udm282-p6udm287) Units=km Length=0.00970858 bus1=p6udm287.1.2 bus2=p6udm282.1.2 switch=n enabled=y phases=2 Linecode=1P_UG_AL_1/0_Brenau_2

New Line.l(r:p6udm287-p6udt127lv) Units=km Length=0.00970858 bus1=p6udt127lv.1.2 bus2=p6udm287.1.2 switch=n enabled=y phases=2 Linecode=1P_UG_AL_1/0_Brenau_2

New Line.l(r:p6udm290-p6ulv260) Units=km Length=0.0132636 bus1=p6udm290.1.2 bus2=p6ulv260.1.2 switch=n enabled=y phases=2 Linecode=1P_UG_AL_1/0_Brenau_2

New Line.l(r:p6udm290-p6ulv262) Units=km Length=0.0163451 bus1=p6udm290.1.2 bus2=p6ulv262.1.2 switch=n enabled=y phases=2 Linecode=1P_UG_AL_1/0_Brenau_2

New Line.l(r:p6udm293-p6ulv263) Units=km Length=0.0151751 bus1=p6udm293.1.2 bus2=p6ulv263.1.2 switch=n enabled=y phases=2 Linecode=1P_UG_AL_1/0_Brenau_2

New Line.l(r:p6udm290-p6udm293) Units=km Length=0.016053 bus1=p6udm290.1.2 bus2=p6udm293.1.2 switch=n enabled=y phases=2 Linecode=1P_UG_AL_1/0_Brenau_2

New Line.l(r:p6udm290-p6udt128lv) Units=km Length=0.00801152 bus1=p6udt128lv.1.2 bus2=p6udm290.1.2 switch=n enabled=y phases=2 Linecode=1P_UG_AL_1/0_Brenau_2

New Line.l(r:p6udm291-p6ulv261) Units=km Length=0.00683729 bus1=p6udm291.1.2 bus2=p6ulv261.1.2 switch=n enabled=y phases=2 Linecode=1P_UG_AL_1/0_Brenau_2

New Line.l(r:p6udm289-p6ulv259) Units=km Length=0.00962605 bus1=p6udm289.1.2 bus2=p6ulv259.1.2 switch=n enabled=y phases=2 Linecode=1P_UG_AL_1/0_Brenau_2

New Line.l(r:p6udm289-p6udm291) Units=km Length=0.030938700000000003 bus1=p6udm291.1.2 bus2=p6udm289.1.2 switch=n enabled=y phases=2 Linecode=1P_UG_AL_1/0_Brenau_2

New Line.l(r:p6udm291-p6udt128lv) Units=km Length=0.00801859 bus1=p6udt128lv.1.2 bus2=p6udm291.1.2 switch=n enabled=y phases=2 Linecode=1P_UG_AL_1/0_Brenau_2

New Line.l(r:p6udt129lv-p6ulv269) Units=km Length=0.0210909 bus1=p6udt129lv.1.2 bus2=p6ulv269.1.2 switch=n enabled=y phases=2 Linecode=1P_UG_AL_1/0_Brenau_2

New Line.l(r:p6udm296-p6ulv270) Units=km Length=0.0378853 bus1=p6udm296.1.2 bus2=p6ulv270.1.2 switch=n enabled=y phases=2 Linecode=1P_UG_AL_1/0_Brenau_2

New Line.l(r:p6udm294-p6ulv264) Units=km Length=0.0158762 bus1=p6udm294.1.2 bus2=p6ulv264.1.2 switch=n enabled=y phases=2 Linecode=1P_UG_AL_1/0_Brenau_2

New Line.l(r:p6udm294-p6ulv429) Units=km Length=0.0119397 bus1=p6udm294.1.2 bus2=p6ulv429.1.2 switch=n enabled=y phases=2 Linecode=1P_UG_AL_1/0_Brenau_2

New Line.l(r:p6udm294-p6udm296) Units=km Length=0.0194533 bus1=p6udm296.1.2 bus2=p6udm294.1.2 switch=n enabled=y phases=2 Linecode=1P_UG_AL_1/0_Brenau_2

New Line.l(r:p6udm296-p6udt129lv) Units=km Length=0.00972666 bus1=p6udt129lv.1.2 bus2=p6udm296.1.2 switch=n enabled=y phases=2 Linecode=1P_UG_AL_1/0_Brenau_2

New Line.l(r:p6udm297-p6ulv427) Units=km Length=0.0129209 bus1=p6udm297.1.2 bus2=p6ulv427.1.2 switch=n enabled=y phases=2 Linecode=1P_UG_AL_1/0_Brenau_2

New Line.l(r:p6udm297-p6udt129lv) Units=km Length=0.0445698 bus1=p6udt129lv.1.2 bus2=p6udm297.1.2 switch=n enabled=y phases=2 Linecode=1P_UG_AL_1/0_Brenau_2

New Line.l(r:p6udm299-p6ulv265) Units=km Length=0.024386000000000005 bus1=p6udm299.1.2 bus2=p6ulv265.1.2 switch=n enabled=y phases=2 Linecode=1P_UG_AL_1/0_Brenau_2

New Line.l(r:p6udm302-p6ulv5208) Units=km Length=0.0114469 bus1=p6udm302.1.2 bus2=p6ulv5208.1.2 switch=n enabled=y phases=2 Linecode=1P_UG_AL_1/0_Brenau_2

New Line.l(r:p6udm300-p6ulv266) Units=km Length=0.0230151 bus1=p6udm300.1.2 bus2=p6ulv266.1.2 switch=n enabled=y phases=2 Linecode=1P_UG_AL_1/0_Brenau_2

New Line.l(r:p6udm300-p6udm302) Units=km Length=0.00946126 bus1=p6udm302.1.2 bus2=p6udm300.1.2 switch=n enabled=y phases=2 Linecode=1P_UG_AL_1/0_Brenau_2

New Line.l(r:p6udm299-p6udm302) Units=km Length=0.0098134 bus1=p6udm299.1.2 bus2=p6udm302.1.2 switch=n enabled=y phases=2 Linecode=1P_UG_AL_1/0_Brenau_2

New Line.l(r:p6udm299-p6udt130lv) Units=km Length=0.00982744 bus1=p6udt130lv.1.2 bus2=p6udm299.1.2 switch=n enabled=y phases=2 Linecode=1P_UG_AL_1/0_Brenau_2

New Line.l(r:p6udm301-p6ulv432) Units=km Length=0.0369836 bus1=p6udm301.1.2 bus2=p6ulv432.1.2 switch=n enabled=y phases=2 Linecode=1P_UG_AL_1/0_Brenau_2

New Line.l(r:p6udm301-p6udt130lv) Units=km Length=0.0214364 bus1=p6udt130lv.1.2 bus2=p6udm301.1.2 switch=n enabled=y phases=2 Linecode=1P_UG_AL_1/0_Brenau_2

New Line.l(r:p6udm303-p6ulv267) Units=km Length=0.029583400000000003 bus1=p6udm303.1.2 bus2=p6ulv267.1.2 switch=n enabled=y phases=2 Linecode=1P_UG_AL_2/0_Converse_2

New Line.l(r:p6udm303-p6udt131lv) Units=km Length=0.0240011 bus1=p6udt131lv.1.2 bus2=p6udm303.1.2 switch=n enabled=y phases=2 Linecode=1P_UG_AL_2/0_Converse_2

New Line.l(r:p6udm305-p6ulv272) Units=km Length=0.0141543 bus1=p6udm305.1.2 bus2=p6ulv272.1.2 switch=n enabled=y phases=2 Linecode=1P_UG_AL_1/0_Brenau_2

New Line.l(r:p6udm304-p6ulv271) Units=km Length=0.013761100000000002 bus1=p6udm304.1.2 bus2=p6ulv271.1.2 switch=n enabled=y phases=2 Linecode=1P_UG_AL_1/0_Brenau_2

New Line.l(r:p6udm304-p6udm305) Units=km Length=0.022197000000000005 bus1=p6udm305.1.2 bus2=p6udm304.1.2 switch=n enabled=y phases=2 Linecode=1P_UG_AL_1/0_Brenau_2

New Line.l(r:p6udm305-p6udt131lv) Units=km Length=0.015811 bus1=p6udt131lv.1.2 bus2=p6udm305.1.2 switch=n enabled=y phases=2 Linecode=1P_UG_AL_1/0_Brenau_2

New Line.l(r:p6udm307-p6ulv273) Units=km Length=0.0150382 bus1=p6udm307.1.2 bus2=p6ulv273.1.2 switch=n enabled=y phases=2 Linecode=1P_UG_AL_1/0_Brenau_2

New Line.l(r:p6udm306-p6ulv268) Units=km Length=0.0153277 bus1=p6udm306.1.2 bus2=p6ulv268.1.2 switch=n enabled=y phases=2 Linecode=1P_UG_AL_1/0_Brenau_2

New Line.l(r:p6udm306-p6udm307) Units=km Length=0.0675904 bus1=p6udm307.1.2 bus2=p6udm306.1.2 switch=n enabled=y phases=2 Linecode=1P_UG_AL_1/0_Brenau_2

New Line.l(r:p6udm307-p6udt132lv) Units=km Length=0.00634331 bus1=p6udt132lv.1.2 bus2=p6udm307.1.2 switch=n enabled=y phases=2 Linecode=1P_UG_AL_1/0_Brenau_2

New Line.l(r:p6udm308-p6ulv274) Units=km Length=0.026782500000000004 bus1=p6udm308.1.2 bus2=p6ulv274.1.2 switch=n enabled=y phases=2 Linecode=1P_UG_AL_1/0_Brenau_2

New Line.l(r:p6udm309-p6ulv275) Units=km Length=0.0117975 bus1=p6udm309.1.2 bus2=p6ulv275.1.2 switch=n enabled=y phases=2 Linecode=1P_UG_AL_1/0_Brenau_2

New Line.l(r:p6udm310-p6ulv276) Units=km Length=0.00660622 bus1=p6udm310.1.2 bus2=p6ulv276.1.2 switch=n enabled=y phases=2 Linecode=1P_UG_AL_1/0_Brenau_2

New Line.l(r:p6udm309-p6udm310) Units=km Length=0.0179798 bus1=p6udm309.1.2 bus2=p6udm310.1.2 switch=n enabled=y phases=2 Linecode=1P_UG_AL_1/0_Brenau_2

New Line.l(r:p6udm308-p6udm309) Units=km Length=0.00769889 bus1=p6udm308.1.2 bus2=p6udm309.1.2 switch=n enabled=y phases=2 Linecode=1P_UG_AL_1/0_Brenau_2

New Line.l(r:p6udm308-p6udt132lv) Units=km Length=0.0076973 bus1=p6udt132lv.1.2 bus2=p6udm308.1.2 switch=n enabled=y phases=2 Linecode=1P_UG_AL_1/0_Brenau_2

New Line.l(r:p6udm313-p6ulv280) Units=km Length=0.0136085 bus1=p6udm313.1.2 bus2=p6ulv280.1.2 switch=n enabled=y phases=2 Linecode=1P_UG_AL_1/0_Brenau_2

New Line.l(r:p6udm311-p6ulv277) Units=km Length=0.0124917 bus1=p6udm311.1.2 bus2=p6ulv277.1.2 switch=n enabled=y phases=2 Linecode=1P_UG_AL_1/0_Brenau_2

New Line.l(r:p6udm314-p6ulv281) Units=km Length=0.0363406 bus1=p6udm314.1.2 bus2=p6ulv281.1.2 switch=n enabled=y phases=2 Linecode=1P_UG_AL_1/0_Brenau_2

New Line.l(r:p6udm312-p6ulv279) Units=km Length=0.0140711 bus1=p6udm312.1.2 bus2=p6ulv279.1.2 switch=n enabled=y phases=2 Linecode=1P_UG_AL_1/0_Brenau_2

New Line.l(r:p6udm312-p6udm314) Units=km Length=0.0121316 bus1=p6udm314.1.2 bus2=p6udm312.1.2 switch=n enabled=y phases=2 Linecode=1P_UG_AL_1/0_Brenau_2

New Line.l(r:p6udm311-p6udm314) Units=km Length=0.00677239 bus1=p6udm311.1.2 bus2=p6udm314.1.2 switch=n enabled=y phases=2 Linecode=1P_UG_AL_1/0_Brenau_2

New Line.l(r:p6udm311-p6udm313) Units=km Length=0.0251572 bus1=p6udm313.1.2 bus2=p6udm311.1.2 switch=n enabled=y phases=2 Linecode=1P_UG_AL_1/0_Brenau_2

New Line.l(r:p6udm313-p6udt133lv) Units=km Length=0.00999025 bus1=p6udt133lv.1.2 bus2=p6udm313.1.2 switch=n enabled=y phases=2 Linecode=1P_UG_AL_1/0_Brenau_2

New Line.l(r:p6udm316-p6ulv283) Units=km Length=0.035511400000000005 bus1=p6udm316.1.2 bus2=p6ulv283.1.2 switch=n enabled=y phases=2 Linecode=1P_UG_AL_1/0_Brenau_2

New Line.l(r:p6udm315-p6ulv282) Units=km Length=0.0116547 bus1=p6udm315.1.2 bus2=p6ulv282.1.2 switch=n enabled=y phases=2 Linecode=1P_UG_AL_1/0_Brenau_2

New Line.l(r:p6udm315-p6udm316) Units=km Length=0.0453028 bus1=p6udm316.1.2 bus2=p6udm315.1.2 switch=n enabled=y phases=2 Linecode=1P_UG_AL_1/0_Brenau_2

New Line.l(r:p6udm316-p6udt133lv) Units=km Length=0.0375723 bus1=p6udt133lv.1.2 bus2=p6udm316.1.2 switch=n enabled=y phases=2 Linecode=1P_UG_AL_1/0_Brenau_2

New Line.l(r:p6udm320-p6ulv387) Units=km Length=0.00993457 bus1=p6udm320.1.2 bus2=p6ulv387.1.2 switch=n enabled=y phases=2 Linecode=1P_UG_AL_1/0_Brenau_2

New Line.l(r:p6udm319-p6ulv386) Units=km Length=0.0157579 bus1=p6udm319.1.2 bus2=p6ulv386.1.2 switch=n enabled=y phases=2 Linecode=1P_UG_AL_1/0_Brenau_2

New Line.l(r:p6udm317-p6ulv278) Units=km Length=0.03048 bus1=p6udm317.1.2 bus2=p6ulv278.1.2 switch=n enabled=y phases=2 Linecode=1P_UG_AL_1/0_Brenau_2

New Line.l(r:p6udm317-p6udm319) Units=km Length=0.0186305 bus1=p6udm319.1.2 bus2=p6udm317.1.2 switch=n enabled=y phases=2 Linecode=1P_UG_AL_1/0_Brenau_2

New Line.l(r:p6udm319-p6udm320) Units=km Length=0.00935868 bus1=p6udm320.1.2 bus2=p6udm319.1.2 switch=n enabled=y phases=2 Linecode=1P_UG_AL_1/0_Brenau_2

New Line.l(r:p6udm320-p6udt134lv) Units=km Length=0.00935868 bus1=p6udt134lv.1.2 bus2=p6udm320.1.2 switch=n enabled=y phases=2 Linecode=1P_UG_AL_1/0_Brenau_2

New Line.l(r:p6udm321-p6ulv388) Units=km Length=0.00516748 bus1=p6udm321.1.2 bus2=p6ulv388.1.2 switch=n enabled=y phases=2 Linecode=1P_UG_AL_1/0_Brenau_2

New Line.l(r:p6udm318-p6ulv284) Units=km Length=0.0223179 bus1=p6udm318.1.2 bus2=p6ulv284.1.2 switch=n enabled=y phases=2 Linecode=1P_UG_AL_1/0_Brenau_2

New Line.l(r:p6udm322-p6ulv390) Units=km Length=0.0106763 bus1=p6udm322.1.2 bus2=p6ulv390.1.2 switch=n enabled=y phases=2 Linecode=1P_UG_AL_1/0_Brenau_2

New Line.l(r:p6udm318-p6udm322) Units=km Length=0.0346738 bus1=p6udm318.1.2 bus2=p6udm322.1.2 switch=n enabled=y phases=2 Linecode=1P_UG_AL_1/0_Brenau_2

New Line.l(r:p6udm318-p6udm321) Units=km Length=0.00761052 bus1=p6udm321.1.2 bus2=p6udm318.1.2 switch=n enabled=y phases=2 Linecode=1P_UG_AL_1/0_Brenau_2

New Line.l(r:p6udm321-p6udt134lv) Units=km Length=0.00761052 bus1=p6udt134lv.1.2 bus2=p6udm321.1.2 switch=n enabled=y phases=2 Linecode=1P_UG_AL_1/0_Brenau_2

New Line.l(r:p6udm324-p6ulv286) Units=km Length=0.00652559 bus1=p6udm324.1.2 bus2=p6ulv286.1.2 switch=n enabled=y phases=2 Linecode=1P_UG_AL_1/0_Brenau_2

New Line.l(r:p6udm323-p6ulv285) Units=km Length=0.00412158 bus1=p6udm323.1.2 bus2=p6ulv285.1.2 switch=n enabled=y phases=2 Linecode=1P_UG_AL_1/0_Brenau_2

New Line.l(r:p6udm323-p6udm324) Units=km Length=0.00809149 bus1=p6udm324.1.2 bus2=p6udm323.1.2 switch=n enabled=y phases=2 Linecode=1P_UG_AL_1/0_Brenau_2

New Line.l(r:p6udm324-p6udt135lv) Units=km Length=0.0161752 bus1=p6udt135lv.1.2 bus2=p6udm324.1.2 switch=n enabled=y phases=2 Linecode=1P_UG_AL_1/0_Brenau_2

New Line.l(r:p6udm325-p6ulv287) Units=km Length=0.0087653 bus1=p6udm325.1.2 bus2=p6ulv287.1.2 switch=n enabled=y phases=2 Linecode=1P_UG_AL_1/0_Brenau_2

New Line.l(r:p6udm326-p6ulv289) Units=km Length=0.0219788 bus1=p6udm326.1.2 bus2=p6ulv289.1.2 switch=n enabled=y phases=2 Linecode=1P_UG_AL_1/0_Brenau_2

New Line.l(r:p6udm325-p6udm326) Units=km Length=0.00863325 bus1=p6udm325.1.2 bus2=p6udm326.1.2 switch=n enabled=y phases=2 Linecode=1P_UG_AL_1/0_Brenau_2

New Line.l(r:p6udm325-p6udt135lv) Units=km Length=0.025365400000000003 bus1=p6udt135lv.1.2 bus2=p6udm325.1.2 switch=n enabled=y phases=2 Linecode=1P_UG_AL_1/0_Brenau_2

New Line.l(r:p6udm328-p6ulv290) Units=km Length=0.0122403 bus1=p6udm328.1.2 bus2=p6ulv290.1.2 switch=n enabled=y phases=2 Linecode=1P_UG_AL_1/0_Brenau_2

New Line.l(r:p6udm332-p6ulv430) Units=km Length=0.0168948 bus1=p6udm332.1.2 bus2=p6ulv430.1.2 switch=n enabled=y phases=2 Linecode=1P_UG_AL_1/0_Brenau_2

New Line.l(r:p6udm333-p6ulv431) Units=km Length=0.011181400000000001 bus1=p6udm333.1.2 bus2=p6ulv431.1.2 switch=n enabled=y phases=2 Linecode=1P_UG_AL_1/0_Brenau_2

New Line.l(r:p6udm327-p6ulv288) Units=km Length=0.00908141 bus1=p6udm327.1.2 bus2=p6ulv288.1.2 switch=n enabled=y phases=2 Linecode=1P_UG_AL_1/0_Brenau_2

New Line.l(r:p6udm327-p6udm333) Units=km Length=0.0189885 bus1=p6udm333.1.2 bus2=p6udm327.1.2 switch=n enabled=y phases=2 Linecode=1P_UG_AL_1/0_Brenau_2

New Line.l(r:p6udm332-p6udm333) Units=km Length=0.00948907 bus1=p6udm332.1.2 bus2=p6udm333.1.2 switch=n enabled=y phases=2 Linecode=1P_UG_AL_1/0_Brenau_2

New Line.l(r:p6udm328-p6udm332) Units=km Length=0.00808249 bus1=p6udm328.1.2 bus2=p6udm332.1.2 switch=n enabled=y phases=2 Linecode=1P_UG_AL_1/0_Brenau_2

New Line.l(r:p6udm328-p6udt136lv) Units=km Length=0.0161544 bus1=p6udt136lv.1.2 bus2=p6udm328.1.2 switch=n enabled=y phases=2 Linecode=1P_UG_AL_1/0_Brenau_2

New Line.l(r:p6udm329-p6ulv293) Units=km Length=0.0100222 bus1=p6udm329.1.2 bus2=p6ulv293.1.2 switch=n enabled=y phases=2 Linecode=1P_UG_AL_1/0_Brenau_2

New Line.l(r:p6udm331-p6ulv428) Units=km Length=0.00746474 bus1=p6udm331.1.2 bus2=p6ulv428.1.2 switch=n enabled=y phases=2 Linecode=1P_UG_AL_1/0_Brenau_2

New Line.l(r:p6udm334-p6ulv3598) Units=km Length=0.0211038 bus1=p6udm334.1.2 bus2=p6ulv3598.1.2 switch=n enabled=y phases=2 Linecode=1P_UG_AL_1/0_Brenau_2

New Line.l(r:p6udm330-p6ulv296) Units=km Length=0.0129788 bus1=p6udm330.1.2 bus2=p6ulv296.1.2 switch=n enabled=y phases=2 Linecode=1P_UG_AL_1/0_Brenau_2

New Line.l(r:p6udm330-p6udm334) Units=km Length=0.006766370000000001 bus1=p6udm334.1.2 bus2=p6udm330.1.2 switch=n enabled=y phases=2 Linecode=1P_UG_AL_1/0_Brenau_2

New Line.l(r:p6udm331-p6udm334) Units=km Length=0.0240542 bus1=p6udm331.1.2 bus2=p6udm334.1.2 switch=n enabled=y phases=2 Linecode=1P_UG_AL_1/0_Brenau_2

New Line.l(r:p6udm329-p6udm331) Units=km Length=0.00807718 bus1=p6udm329.1.2 bus2=p6udm331.1.2 switch=n enabled=y phases=2 Linecode=1P_UG_AL_1/0_Brenau_2

New Line.l(r:p6udm329-p6udt136lv) Units=km Length=0.00807718 bus1=p6udt136lv.1.2 bus2=p6udm329.1.2 switch=n enabled=y phases=2 Linecode=1P_UG_AL_1/0_Brenau_2

New Line.l(r:p6udt137lv-p6ulv295) Units=km Length=0.00799606 bus1=p6udt137lv.1.2 bus2=p6ulv295.1.2 switch=n enabled=y phases=2 Linecode=1P_OH_AL_2/0_Rucina_2

New Line.l(r:p6udm337-p6ulv294) Units=km Length=0.00642627 bus1=p6udm337.1.2 bus2=p6ulv294.1.2 switch=n enabled=y phases=2 Linecode=1P_UG_AL_1/0_Brenau_2

New Line.l(r:p6udm336-p6ulv292) Units=km Length=0.0110111 bus1=p6udm336.1.2 bus2=p6ulv292.1.2 switch=n enabled=y phases=2 Linecode=1P_UG_AL_1/0_Brenau_2

New Line.l(r:p6udm335-p6ulv291) Units=km Length=0.00910785 bus1=p6udm335.1.2 bus2=p6ulv291.1.2 switch=n enabled=y phases=2 Linecode=1P_UG_AL_1/0_Brenau_2

New Line.l(r:p6udm335-p6udm336) Units=km Length=0.0157865 bus1=p6udm336.1.2 bus2=p6udm335.1.2 switch=n enabled=y phases=2 Linecode=1P_UG_AL_1/0_Brenau_2

New Line.l(r:p6udm336-p6udm337) Units=km Length=0.00788204 bus1=p6udm337.1.2 bus2=p6udm336.1.2 switch=n enabled=y phases=2 Linecode=1P_UG_AL_1/0_Brenau_2

New Line.l(r:p6udm337-p6udt137lv) Units=km Length=0.0139822 bus1=p6udt137lv.1.2 bus2=p6udm337.1.2 switch=n enabled=y phases=2 Linecode=1P_OH_AL_2/0_Rucina_2

New Line.l(r:p6udm339-p6ulv298) Units=km Length=0.0183392 bus1=p6udm339.1.2 bus2=p6ulv298.1.2 switch=n enabled=y phases=2 Linecode=1P_UG_AL_1/0_Brenau_2

New Line.l(r:p6udm340-p6ulv299) Units=km Length=0.0122777 bus1=p6udm340.1.2 bus2=p6ulv299.1.2 switch=n enabled=y phases=2 Linecode=1P_UG_AL_1/0_Brenau_2

New Line.l(r:p6udm339-p6udm340) Units=km Length=0.0100018 bus1=p6udm339.1.2 bus2=p6udm340.1.2 switch=n enabled=y phases=2 Linecode=1P_UG_AL_1/0_Brenau_2

New Line.l(r:p6udm339-p6udt137lv) Units=km Length=0.0275918 bus1=p6udt137lv.1.2 bus2=p6udm339.1.2 switch=n enabled=y phases=2 Linecode=1P_OH_AL_4/0_Zuzara_2

New Line.l(r:p6udt138lv-p6ulv303) Units=km Length=0.011325400000000001 bus1=p6udt138lv.1.2 bus2=p6ulv303.1.2 switch=n enabled=y phases=2 Linecode=1P_UG_AL_1/0_Brenau_2

New Line.l(r:p6udm344-p6ulv304) Units=km Length=0.0105333 bus1=p6udm344.1.2 bus2=p6ulv304.1.2 switch=n enabled=y phases=2 Linecode=1P_UG_AL_1/0_Brenau_2

New Line.l(r:p6udm345-p6ulv305) Units=km Length=0.019662 bus1=p6udm345.1.2 bus2=p6ulv305.1.2 switch=n enabled=y phases=2 Linecode=1P_UG_AL_1/0_Brenau_2

New Line.l(r:p6udm345-p6ulv307) Units=km Length=0.0110215 bus1=p6udm345.1.2 bus2=p6ulv307.1.2 switch=n enabled=y phases=2 Linecode=1P_UG_AL_1/0_Brenau_2

New Line.l(r:p6udm345-p6ulv308) Units=km Length=0.015223100000000002 bus1=p6udm345.1.2 bus2=p6ulv308.1.2 switch=n enabled=y phases=2 Linecode=1P_UG_AL_1/0_Brenau_2

New Line.l(r:p6udm349-p6ulv309) Units=km Length=0.00898154 bus1=p6udm349.1.2 bus2=p6ulv309.1.2 switch=n enabled=y phases=2 Linecode=1P_UG_AL_1/0_Brenau_2

New Line.l(r:p6udm350-p6ulv310) Units=km Length=0.0113542 bus1=p6udm350.1.2 bus2=p6ulv310.1.2 switch=n enabled=y phases=2 Linecode=1P_UG_AL_1/0_Brenau_2

New Line.l(r:p6udm351-p6ulv311) Units=km Length=0.0122755 bus1=p6udm351.1.2 bus2=p6ulv311.1.2 switch=n enabled=y phases=2 Linecode=1P_UG_AL_1/0_Brenau_2

New Line.l(r:p6udm352-p6ulv313) Units=km Length=0.010521700000000002 bus1=p6udm352.1.2 bus2=p6ulv313.1.2 switch=n enabled=y phases=2 Linecode=1P_UG_AL_1/0_Brenau_2

New Line.l(r:p6udm352-p6ulv314) Units=km Length=0.013459400000000002 bus1=p6udm352.1.2 bus2=p6ulv314.1.2 switch=n enabled=y phases=2 Linecode=1P_UG_AL_1/0_Brenau_2

New Line.l(r:p6udm351-p6udm352) Units=km Length=0.0100001 bus1=p6udm351.1.2 bus2=p6udm352.1.2 switch=n enabled=y phases=2 Linecode=1P_UG_AL_1/0_Brenau_2

New Line.l(r:p6udm350-p6udm351) Units=km Length=0.0100001 bus1=p6udm350.1.2 bus2=p6udm351.1.2 switch=n enabled=y phases=2 Linecode=1P_UG_AL_1/0_Brenau_2

New Line.l(r:p6udm349-p6udm350) Units=km Length=0.009989180000000002 bus1=p6udm349.1.2 bus2=p6udm350.1.2 switch=n enabled=y phases=2 Linecode=1P_UG_AL_1/0_Brenau_2

New Line.l(r:p6udm345-p6udm349) Units=km Length=0.0100001 bus1=p6udm345.1.2 bus2=p6udm349.1.2 switch=n enabled=y phases=2 Linecode=1P_UG_AL_2/0_Converse_2

New Line.l(r:p6udm344-p6udm345) Units=km Length=0.00967988 bus1=p6udm344.1.2 bus2=p6udm345.1.2 switch=n enabled=y phases=2 Linecode=1P_UG_AL_4/0_Sweetbriar_2

New Line.l(r:p6udm344-p6udt138lv) Units=km Length=0.0096699 bus1=p6udt138lv.1.2 bus2=p6udm344.1.2 switch=n enabled=y phases=2 Linecode=1P_UG_AL_4/0_Sweetbriar_2

New Line.l(r:p6udm346-p6ulv306) Units=km Length=0.0199391 bus1=p6udm346.1.2 bus2=p6ulv306.1.2 switch=n enabled=y phases=2 Linecode=1P_UG_AL_1/0_Brenau_2

New Line.l(r:p6udm355-p6ulv3600) Units=km Length=0.0101071 bus1=p6udm355.1.2 bus2=p6ulv3600.1.2 switch=n enabled=y phases=2 Linecode=1P_UG_AL_1/0_Brenau_2

New Line.l(r:p6udm356-p6ulv3601) Units=km Length=0.0185621 bus1=p6udm356.1.2 bus2=p6ulv3601.1.2 switch=n enabled=y phases=2 Linecode=1P_UG_AL_1/0_Brenau_2

New Line.l(r:p6udm342-p6ulv300) Units=km Length=0.0133402 bus1=p6udm342.1.2 bus2=p6ulv300.1.2 switch=n enabled=y phases=2 Linecode=1P_UG_AL_1/0_Brenau_2

New Line.l(r:p6udm341-p6ulv297) Units=km Length=0.0205443 bus1=p6udm341.1.2 bus2=p6ulv297.1.2 switch=n enabled=y phases=2 Linecode=1P_UG_AL_1/0_Brenau_2

New Line.l(r:p6udm341-p6ulv3599) Units=km Length=0.0165832 bus1=p6udm341.1.2 bus2=p6ulv3599.1.2 switch=n enabled=y phases=2 Linecode=1P_UG_AL_1/0_Brenau_2

New Line.l(r:p6udm341-p6udm342) Units=km Length=0.00904275 bus1=p6udm342.1.2 bus2=p6udm341.1.2 switch=n enabled=y phases=2 Linecode=1P_UG_AL_1/0_Brenau_2

New Line.l(r:p6udm342-p6udm356) Units=km Length=0.00904275 bus1=p6udm356.1.2 bus2=p6udm342.1.2 switch=n enabled=y phases=2 Linecode=1P_UG_AL_1/0_Brenau_2

New Line.l(r:p6udm355-p6udm356) Units=km Length=0.00904275 bus1=p6udm355.1.2 bus2=p6udm356.1.2 switch=n enabled=y phases=2 Linecode=1P_UG_AL_1/0_Brenau_2

New Line.l(r:p6udm346-p6udm355) Units=km Length=0.00904275 bus1=p6udm346.1.2 bus2=p6udm355.1.2 switch=n enabled=y phases=2 Linecode=1P_UG_AL_1/0_Brenau_2

New Line.l(r:p6udm346-p6udt138lv) Units=km Length=0.0379659 bus1=p6udt138lv.1.2 bus2=p6udm346.1.2 switch=n enabled=y phases=2 Linecode=1P_UG_AL_1/0_Brenau_2

New Line.l(r:p6udm358-p6ulv302) Units=km Length=0.0172921 bus1=p6udm358.1.2 bus2=p6ulv302.1.2 switch=n enabled=y phases=2 Linecode=1P_UG_AL_1/0_Brenau_2

New Line.l(r:p6udm357-p6ulv301) Units=km Length=0.0121984 bus1=p6udm357.1.2 bus2=p6ulv301.1.2 switch=n enabled=y phases=2 Linecode=1P_UG_AL_4/0_Sweetbriar_2

New Line.l(r:p6udm357-p6udm358) Units=km Length=0.039381700000000006 bus1=p6udm358.1.2 bus2=p6udm357.1.2 switch=n enabled=y phases=2 Linecode=1P_UG_AL_4/0_Sweetbriar_2

New Line.l(r:p6udm358-p6udt139lv) Units=km Length=0.00968149 bus1=p6udt139lv.1.2 bus2=p6udm358.1.2 switch=n enabled=y phases=2 Linecode=1P_UG_AL_4/0_Sweetbriar_2

New Line.l(r:p6udm359-p6ulv312) Units=km Length=0.0152254 bus1=p6udm359.1.2 bus2=p6ulv312.1.2 switch=n enabled=y phases=2 Linecode=1P_UG_AL_1/0_Brenau_2

New Line.l(r:p6udm359-p6udt139lv) Units=km Length=0.0474079 bus1=p6udt139lv.1.2 bus2=p6udm359.1.2 switch=n enabled=y phases=2 Linecode=1P_UG_AL_1/0_Brenau_2

New Line.l(r:p6udm361-p6ulv319) Units=km Length=0.014260300000000002 bus1=p6udm361.1.2 bus2=p6ulv319.1.2 switch=n enabled=y phases=2 Linecode=1P_UG_AL_1/0_Brenau_2

New Line.l(r:p6udm362-p6ulv320) Units=km Length=0.0234613 bus1=p6udm362.1.2 bus2=p6ulv320.1.2 switch=n enabled=y phases=2 Linecode=1P_UG_AL_1/0_Brenau_2

New Line.l(r:p6udm361-p6udm362) Units=km Length=0.0229787 bus1=p6udm361.1.2 bus2=p6udm362.1.2 switch=n enabled=y phases=2 Linecode=1P_UG_AL_1/0_Brenau_2

New Line.l(r:p6udm361-p6udt140lv) Units=km Length=0.00745059 bus1=p6udt140lv.1.2 bus2=p6udm361.1.2 switch=n enabled=y phases=2 Linecode=1P_UG_AL_1/0_Brenau_2

New Line.l(r:p6udm363-p6ulv322) Units=km Length=0.00930267 bus1=p6udm363.1.2 bus2=p6ulv322.1.2 switch=n enabled=y phases=2 Linecode=1P_UG_AL_1/0_Brenau_2

New Line.l(r:p6udm363-p6udt140lv) Units=km Length=0.0484753 bus1=p6udt140lv.1.2 bus2=p6udm363.1.2 switch=n enabled=y phases=2 Linecode=1P_UG_AL_1/0_Brenau_2

New Line.l(r:p6udm364-p6ulv325) Units=km Length=0.012847 bus1=p6udm364.1.2 bus2=p6ulv325.1.2 switch=n enabled=y phases=2 Linecode=1P_UG_AL_1/0_Brenau_2

New Line.l(r:p6udm360-p6ulv315) Units=km Length=0.013523 bus1=p6udm360.1.2 bus2=p6ulv315.1.2 switch=n enabled=y phases=2 Linecode=1P_UG_AL_1/0_Brenau_2

New Line.l(r:p6udm360-p6udm364) Units=km Length=0.0213812 bus1=p6udm364.1.2 bus2=p6udm360.1.2 switch=n enabled=y phases=2 Linecode=1P_UG_AL_1/0_Brenau_2

New Line.l(r:p6udm364-p6udt140lv) Units=km Length=0.0124719 bus1=p6udt140lv.1.2 bus2=p6udm364.1.2 switch=n enabled=y phases=2 Linecode=1P_UG_AL_1/0_Brenau_2

New Line.l(r:p6udt141lv-p6ulv317) Units=km Length=0.011030800000000002 bus1=p6udt141lv.1.2 bus2=p6ulv317.1.2 switch=n enabled=y phases=2 Linecode=1P_UG_AL_1/0_Brenau_2

New Line.l(r:p6udt141lv-p6ulv438) Units=km Length=0.008762750000000001 bus1=p6udt141lv.1.2 bus2=p6ulv438.1.2 switch=n enabled=y phases=2 Linecode=1P_UG_AL_1/0_Brenau_2

New Line.l(r:p6udm367-p6ulv318) Units=km Length=0.022931100000000003 bus1=p6udm367.1.2 bus2=p6ulv318.1.2 switch=n enabled=y phases=2 Linecode=1P_UG_AL_1/0_Brenau_2

New Line.l(r:p6udm367-p6udt141lv) Units=km Length=0.0303749 bus1=p6udt141lv.1.2 bus2=p6udm367.1.2 switch=n enabled=y phases=2 Linecode=1P_UG_AL_1/0_Brenau_2

New Line.l(r:p6udm368-p6ulv399) Units=km Length=0.00784664 bus1=p6udm368.1.2 bus2=p6ulv399.1.2 switch=n enabled=y phases=2 Linecode=1P_UG_AL_1/0_Brenau_2

New Line.l(r:p6udm365-p6ulv316) Units=km Length=0.0169608 bus1=p6udm365.1.2 bus2=p6ulv316.1.2 switch=n enabled=y phases=2 Linecode=1P_UG_AL_1/0_Brenau_2

New Line.l(r:p6udm365-p6udm368) Units=km Length=0.0161233 bus1=p6udm368.1.2 bus2=p6udm365.1.2 switch=n enabled=y phases=2 Linecode=1P_UG_AL_1/0_Brenau_2

New Line.l(r:p6udm368-p6udt141lv) Units=km Length=0.0223351 bus1=p6udt141lv.1.2 bus2=p6udm368.1.2 switch=n enabled=y phases=2 Linecode=1P_UG_AL_1/0_Brenau_2

New Line.l(r:p6udt142lv-p6ulv440) Units=km Length=0.0328843 bus1=p6udt142lv.1.2 bus2=p6ulv440.1.2 switch=n enabled=y phases=2 Linecode=1P_UG_AL_1/0_Brenau_2

New Line.l(r:p6udm371-p6ulv323) Units=km Length=0.0117364 bus1=p6udm371.1.2 bus2=p6ulv323.1.2 switch=n enabled=y phases=2 Linecode=1P_UG_AL_1/0_Brenau_2

New Line.l(r:p6udm370-p6ulv321) Units=km Length=0.028270500000000004 bus1=p6udm370.1.2 bus2=p6ulv321.1.2 switch=n enabled=y phases=2 Linecode=1P_UG_AL_1/0_Brenau_2

New Line.l(r:p6udm370-p6udm371) Units=km Length=0.00889695 bus1=p6udm371.1.2 bus2=p6udm370.1.2 switch=n enabled=y phases=2 Linecode=1P_UG_AL_1/0_Brenau_2

New Line.l(r:p6udm371-p6udt142lv) Units=km Length=0.0177939 bus1=p6udt142lv.1.2 bus2=p6udm371.1.2 switch=n enabled=y phases=2 Linecode=1P_UG_AL_1/0_Brenau_2

New Line.l(r:p6udm374-p6ulv3597) Units=km Length=0.010527400000000001 bus1=p6udm374.1.2 bus2=p6ulv3597.1.2 switch=n enabled=y phases=2 Linecode=1P_UG_AL_1/0_Brenau_2

New Line.l(r:p6udm373-p6ulv441) Units=km Length=0.03398070000000001 bus1=p6udm373.1.2 bus2=p6ulv441.1.2 switch=n enabled=y phases=2 Linecode=1P_UG_AL_1/0_Brenau_2

New Line.l(r:p6udm373-p6udm374) Units=km Length=0.00844396 bus1=p6udm374.1.2 bus2=p6udm373.1.2 switch=n enabled=y phases=2 Linecode=1P_UG_AL_1/0_Brenau_2

New Line.l(r:p6udm374-p6udt142lv) Units=km Length=0.00844034 bus1=p6udt142lv.1.2 bus2=p6udm374.1.2 switch=n enabled=y phases=2 Linecode=1P_UG_AL_1/0_Brenau_2

New Line.l(r:p6udt143lv-p6ulv324) Units=km Length=0.013738400000000001 bus1=p6udt143lv.1.2 bus2=p6ulv324.1.2 switch=n enabled=y phases=2 Linecode=1P_UG_AL_1/0_Brenau_2

New Line.l(r:p6udt143lv-p6ulv329) Units=km Length=0.0200575 bus1=p6udt143lv.1.2 bus2=p6ulv329.1.2 switch=n enabled=y phases=2 Linecode=1P_UG_AL_1/0_Brenau_2

New Line.l(r:p6udt144lv-p6ulv374) Units=km Length=0.0476744 bus1=p6udt144lv.1.2 bus2=p6ulv374.1.2 switch=n enabled=y phases=2 Linecode=1P_UG_AL_1/0_Brenau_2

New Line.l(r:p6udm379-p6ulv335) Units=km Length=0.0146209 bus1=p6udm379.1.2 bus2=p6ulv335.1.2 switch=n enabled=y phases=2 Linecode=1P_UG_AL_1/0_Brenau_2

New Line.l(r:p6udm380-p6ulv338) Units=km Length=0.0159921 bus1=p6udm380.1.2 bus2=p6ulv338.1.2 switch=n enabled=y phases=2 Linecode=1P_UG_AL_1/0_Brenau_2

New Line.l(r:p6udm380-p6ulv375) Units=km Length=0.023380100000000004 bus1=p6udm380.1.2 bus2=p6ulv375.1.2 switch=n enabled=y phases=2 Linecode=1P_UG_AL_1/0_Brenau_2

New Line.l(r:p6udm380-p6ulv376) Units=km Length=0.0132006 bus1=p6udm380.1.2 bus2=p6ulv376.1.2 switch=n enabled=y phases=2 Linecode=1P_UG_AL_1/0_Brenau_2

New Line.l(r:p6udm379-p6udm380) Units=km Length=0.0095747 bus1=p6udm379.1.2 bus2=p6udm380.1.2 switch=n enabled=y phases=2 Linecode=1P_UG_AL_1/0_Brenau_2

New Line.l(r:p6udm379-p6udt144lv) Units=km Length=0.00956471 bus1=p6udt144lv.1.2 bus2=p6udm379.1.2 switch=n enabled=y phases=2 Linecode=1P_UG_AL_1/0_Brenau_2

New Line.l(r:p6udm381-p6ulv372) Units=km Length=0.03695 bus1=p6udm381.1.2 bus2=p6ulv372.1.2 switch=n enabled=y phases=2 Linecode=1P_UG_AL_1/0_Brenau_2

New Line.l(r:p6udm381-p6ulv373) Units=km Length=0.0196241 bus1=p6udm381.1.2 bus2=p6ulv373.1.2 switch=n enabled=y phases=2 Linecode=1P_UG_AL_1/0_Brenau_2

New Line.l(r:p6udm377-p6ulv327) Units=km Length=0.012967800000000002 bus1=p6udm377.1.2 bus2=p6ulv327.1.2 switch=n enabled=y phases=2 Linecode=1P_UG_AL_1/0_Brenau_2

New Line.l(r:p6udm377-p6ulv328) Units=km Length=0.0204322 bus1=p6udm377.1.2 bus2=p6ulv328.1.2 switch=n enabled=y phases=2 Linecode=1P_UG_AL_1/0_Brenau_2

New Line.l(r:p6udm377-p6udm381) Units=km Length=0.00956471 bus1=p6udm381.1.2 bus2=p6udm377.1.2 switch=n enabled=y phases=2 Linecode=1P_UG_AL_1/0_Brenau_2

New Line.l(r:p6udm381-p6udt144lv) Units=km Length=0.0095747 bus1=p6udt144lv.1.2 bus2=p6udm381.1.2 switch=n enabled=y phases=2 Linecode=1P_UG_AL_1/0_Brenau_2

New Line.l(r:p6udt145lv-p6ulv332) Units=km Length=0.0118555 bus1=p6udt145lv.1.2 bus2=p6ulv332.1.2 switch=n enabled=y phases=2 Linecode=1P_UG_AL_1/0_Brenau_2

New Line.l(r:p6udt145lv-p6ulv334) Units=km Length=0.0354686 bus1=p6udt145lv.1.2 bus2=p6ulv334.1.2 switch=n enabled=y phases=2 Linecode=1P_UG_AL_1/0_Brenau_2

New Line.l(r:p6udm392-p6ulv400) Units=km Length=0.0137496 bus1=p6udm392.1.2 bus2=p6ulv400.1.2 switch=n enabled=y phases=2 Linecode=1P_UG_AL_1/0_Brenau_2

New Line.l(r:p6udm392-p6ulv401) Units=km Length=0.037460700000000006 bus1=p6udm392.1.2 bus2=p6ulv401.1.2 switch=n enabled=y phases=2 Linecode=1P_UG_AL_1/0_Brenau_2

New Line.l(r:p6udm386-p6ulv330) Units=km Length=0.0116656 bus1=p6udm386.1.2 bus2=p6ulv330.1.2 switch=n enabled=y phases=2 Linecode=1P_UG_AL_1/0_Brenau_2

New Line.l(r:p6udm386-p6ulv331) Units=km Length=0.0108903 bus1=p6udm386.1.2 bus2=p6ulv331.1.2 switch=n enabled=y phases=2 Linecode=1P_UG_AL_1/0_Brenau_2

New Line.l(r:p6udm386-p6udm392) Units=km Length=0.00914158 bus1=p6udm392.1.2 bus2=p6udm386.1.2 switch=n enabled=y phases=2 Linecode=1P_UG_AL_1/0_Brenau_2

New Line.l(r:p6udm392-p6udt145lv) Units=km Length=0.0274149 bus1=p6udt145lv.1.2 bus2=p6udm392.1.2 switch=n enabled=y phases=2 Linecode=1P_UG_AL_1/0_Brenau_2

New Line.l(r:p6udm394-p6ulv402) Units=km Length=0.0143289 bus1=p6udm394.1.2 bus2=p6ulv402.1.2 switch=n enabled=y phases=2 Linecode=1P_UG_AL_1/0_Brenau_2

New Line.l(r:p6udm394-p6ulv403) Units=km Length=0.0474414 bus1=p6udm394.1.2 bus2=p6ulv403.1.2 switch=n enabled=y phases=2 Linecode=1P_UG_AL_1/0_Brenau_2

New Line.l(r:p6udm394-p6ulv3617) Units=km Length=0.0357837 bus1=p6udm394.1.2 bus2=p6ulv3617.1.2 switch=n enabled=y phases=2 Linecode=1P_UG_AL_1/0_Brenau_2

New Line.l(r:p6udm396-p6ulv404) Units=km Length=0.0155093 bus1=p6udm396.1.2 bus2=p6ulv404.1.2 switch=n enabled=y phases=2 Linecode=1P_UG_AL_1/0_Brenau_2

New Line.l(r:p6udm390-p6ulv336) Units=km Length=0.0115255 bus1=p6udm390.1.2 bus2=p6ulv336.1.2 switch=n enabled=y phases=2 Linecode=1P_UG_AL_1/0_Brenau_2

New Line.l(r:p6udm391-p6ulv337) Units=km Length=0.03499800000000001 bus1=p6udm391.1.2 bus2=p6ulv337.1.2 switch=n enabled=y phases=2 Linecode=1P_UG_AL_1/0_Brenau_2

New Line.l(r:p6udm390-p6udm391) Units=km Length=0.005245840000000001 bus1=p6udm390.1.2 bus2=p6udm391.1.2 switch=n enabled=y phases=2 Linecode=1P_UG_AL_1/0_Brenau_2

New Line.l(r:p6udm390-p6udm396) Units=km Length=0.00523689 bus1=p6udm396.1.2 bus2=p6udm390.1.2 switch=n enabled=y phases=2 Linecode=1P_UG_AL_1/0_Brenau_2

New Line.l(r:p6udm394-p6udm396) Units=km Length=0.00914158 bus1=p6udm394.1.2 bus2=p6udm396.1.2 switch=n enabled=y phases=2 Linecode=1P_UG_AL_1/0_Brenau_2

New Line.l(r:p6udm394-p6udt145lv) Units=km Length=0.00913177 bus1=p6udt145lv.1.2 bus2=p6udm394.1.2 switch=n enabled=y phases=2 Linecode=1P_UG_AL_1/0_Brenau_2

New Line.l(r:p6udt146lv-p6ulv379) Units=km Length=0.0440423 bus1=p6udt146lv.1.2 bus2=p6ulv379.1.2 switch=n enabled=y phases=2 Linecode=1P_UG_AL_1/0_Brenau_2

New Line.l(r:p6udm406-p6ulv378) Units=km Length=0.0131236 bus1=p6udm406.1.2 bus2=p6ulv378.1.2 switch=n enabled=y phases=2 Linecode=1P_UG_AL_1/0_Brenau_2

New Line.l(r:p6udm406-p6ulv380) Units=km Length=0.05171030000000001 bus1=p6udm406.1.2 bus2=p6ulv380.1.2 switch=n enabled=y phases=2 Linecode=1P_UG_AL_1/0_Brenau_2

New Line.l(r:p6udm398-p6ulv339) Units=km Length=0.0366796 bus1=p6udm398.1.2 bus2=p6ulv339.1.2 switch=n enabled=y phases=2 Linecode=1P_UG_AL_1/0_Brenau_2

New Line.l(r:p6udm398-p6ulv340) Units=km Length=0.01737 bus1=p6udm398.1.2 bus2=p6ulv340.1.2 switch=n enabled=y phases=2 Linecode=1P_UG_AL_1/0_Brenau_2

New Line.l(r:p6udm398-p6ulv341) Units=km Length=0.0152072 bus1=p6udm398.1.2 bus2=p6ulv341.1.2 switch=n enabled=y phases=2 Linecode=1P_UG_AL_1/0_Brenau_2

New Line.l(r:p6udm398-p6ulv377) Units=km Length=0.019049500000000004 bus1=p6udm398.1.2 bus2=p6ulv377.1.2 switch=n enabled=y phases=2 Linecode=1P_UG_AL_1/0_Brenau_2

New Line.l(r:p6udm398-p6udm406) Units=km Length=0.00962149 bus1=p6udm406.1.2 bus2=p6udm398.1.2 switch=n enabled=y phases=2 Linecode=1P_UG_AL_1/0_Brenau_2

New Line.l(r:p6udm406-p6udt146lv) Units=km Length=0.00961199 bus1=p6udt146lv.1.2 bus2=p6udm406.1.2 switch=n enabled=y phases=2 Linecode=1P_UG_AL_1/0_Brenau_2

New Line.l(r:p6udm409-p6ulv381) Units=km Length=0.0105455 bus1=p6udm409.1.2 bus2=p6ulv381.1.2 switch=n enabled=y phases=2 Linecode=1P_UG_AL_1/0_Brenau_2

New Line.l(r:p6udm402-p6ulv347) Units=km Length=0.00868 bus1=p6udm402.1.2 bus2=p6ulv347.1.2 switch=n enabled=y phases=2 Linecode=1P_UG_AL_1/0_Brenau_2

New Line.l(r:p6udm403-p6ulv348) Units=km Length=0.00757634 bus1=p6udm403.1.2 bus2=p6ulv348.1.2 switch=n enabled=y phases=2 Linecode=1P_UG_AL_1/0_Brenau_2

New Line.l(r:p6udm404-p6ulv349) Units=km Length=0.00854052 bus1=p6udm404.1.2 bus2=p6ulv349.1.2 switch=n enabled=y phases=2 Linecode=1P_UG_AL_1/0_Brenau_2

New Line.l(r:p6udm401-p6ulv345) Units=km Length=0.018003 bus1=p6udm401.1.2 bus2=p6ulv345.1.2 switch=n enabled=y phases=2 Linecode=1P_UG_AL_1/0_Brenau_2

New Line.l(r:p6udm401-p6udm404) Units=km Length=0.00973166 bus1=p6udm404.1.2 bus2=p6udm401.1.2 switch=n enabled=y phases=2 Linecode=1P_UG_AL_1/0_Brenau_2

New Line.l(r:p6udm403-p6udm404) Units=km Length=0.0194631 bus1=p6udm403.1.2 bus2=p6udm404.1.2 switch=n enabled=y phases=2 Linecode=1P_UG_AL_1/0_Brenau_2

New Line.l(r:p6udm402-p6udm403) Units=km Length=0.023090300000000005 bus1=p6udm402.1.2 bus2=p6udm403.1.2 switch=n enabled=y phases=2 Linecode=1P_UG_AL_1/0_Brenau_2

New Line.l(r:p6udm402-p6udm409) Units=km Length=0.0096115 bus1=p6udm409.1.2 bus2=p6udm402.1.2 switch=n enabled=y phases=2 Linecode=1P_UG_AL_2/0_Converse_2

New Line.l(r:p6udm409-p6udt146lv) Units=km Length=0.00962149 bus1=p6udt146lv.1.2 bus2=p6udm409.1.2 switch=n enabled=y phases=2 Linecode=1P_UG_AL_4/0_Sweetbriar_2

New Line.l(r:p6udm410-p6ulv342) Units=km Length=0.012030600000000002 bus1=p6udm410.1.2 bus2=p6ulv342.1.2 switch=n enabled=y phases=2 Linecode=1P_UG_AL_1/0_Brenau_2

New Line.l(r:p6udm410-p6ulv408) Units=km Length=0.0159081 bus1=p6udm410.1.2 bus2=p6ulv408.1.2 switch=n enabled=y phases=2 Linecode=1P_UG_AL_1/0_Brenau_2

New Line.l(r:p6udm413-p6ulv3615) Units=km Length=0.0307757 bus1=p6udm413.1.2 bus2=p6ulv3615.1.2 switch=n enabled=y phases=2 Linecode=1P_UG_AL_1/0_Brenau_2

New Line.l(r:p6udm410-p6udm413) Units=km Length=0.00995423 bus1=p6udm410.1.2 bus2=p6udm413.1.2 switch=n enabled=y phases=2 Linecode=1P_UG_AL_1/0_Brenau_2

New Line.l(r:p6udm410-p6udt147lv) Units=km Length=0.00996422 bus1=p6udt147lv.1.2 bus2=p6udm410.1.2 switch=n enabled=y phases=2 Linecode=1P_UG_AL_1/0_Brenau_2

New Line.l(r:p6udm411-p6ulv343) Units=km Length=0.00787006 bus1=p6udm411.1.2 bus2=p6ulv343.1.2 switch=n enabled=y phases=2 Linecode=1P_UG_AL_1/0_Brenau_2

New Line.l(r:p6udm411-p6udt147lv) Units=km Length=0.0199184 bus1=p6udt147lv.1.2 bus2=p6udm411.1.2 switch=n enabled=y phases=2 Linecode=1P_UG_AL_1/0_Brenau_2

New Line.l(r:p6udm417-p6ulv353) Units=km Length=0.0225927 bus1=p6udm417.1.2 bus2=p6ulv353.1.2 switch=n enabled=y phases=2 Linecode=1P_UG_AL_1/0_Brenau_2

New Line.l(r:p6udm414-p6ulv344) Units=km Length=0.0168403 bus1=p6udm414.1.2 bus2=p6ulv344.1.2 switch=n enabled=y phases=2 Linecode=1P_UG_AL_1/0_Brenau_2

New Line.l(r:p6udm414-p6ulv350) Units=km Length=0.006586560000000001 bus1=p6udm414.1.2 bus2=p6ulv350.1.2 switch=n enabled=y phases=2 Linecode=1P_UG_AL_1/0_Brenau_2

New Line.l(r:p6udm414-p6udm417) Units=km Length=0.00973148 bus1=p6udm417.1.2 bus2=p6udm414.1.2 switch=n enabled=y phases=2 Linecode=1P_UG_AL_1/0_Brenau_2

New Line.l(r:p6udm417-p6udt148lv) Units=km Length=0.0291948 bus1=p6udt148lv.1.2 bus2=p6udm417.1.2 switch=n enabled=y phases=2 Linecode=1P_UG_AL_1/0_Brenau_2

New Line.l(r:p6udm418-p6ulv359) Units=km Length=0.0482804 bus1=p6udm418.1.2 bus2=p6ulv359.1.2 switch=n enabled=y phases=2 Linecode=1P_UG_AL_1/0_Brenau_2

New Line.l(r:p6udm418-p6ulv360) Units=km Length=0.0117637 bus1=p6udm418.1.2 bus2=p6ulv360.1.2 switch=n enabled=y phases=2 Linecode=1P_UG_AL_1/0_Brenau_2

New Line.l(r:p6udm416-p6ulv351) Units=km Length=0.0206407 bus1=p6udm416.1.2 bus2=p6ulv351.1.2 switch=n enabled=y phases=2 Linecode=1P_UG_AL_4/0_Sweetbriar_2

New Line.l(r:p6udm416-p6udm418) Units=km Length=0.00848764 bus1=p6udm418.1.2 bus2=p6udm416.1.2 switch=n enabled=y phases=2 Linecode=1P_UG_AL_4/0_Sweetbriar_2

New Line.l(r:p6udm418-p6udt148lv) Units=km Length=0.0461899 bus1=p6udt148lv.1.2 bus2=p6udm418.1.2 switch=n enabled=y phases=2 Linecode=1P_UG_AL_4/0_Sweetbriar_2

New Line.l(r:p6udt149lv-p6ulv352) Units=km Length=0.0141332 bus1=p6udt149lv.1.2 bus2=p6ulv352.1.2 switch=n enabled=y phases=2 Linecode=1P_OH_AL_2/0_Rucina_2

New Line.l(r:p6udt149lv-p6ulv2582) Units=km Length=0.0187231 bus1=p6udt149lv.1.2 bus2=p6ulv2582.1.2 switch=n enabled=y phases=2 Linecode=1P_OH_AL_2/0_Rucina_2

New Line.l(r:p6udm421-p6ulv2581) Units=km Length=0.0210119 bus1=p6udm421.1.2 bus2=p6ulv2581.1.2 switch=n enabled=y phases=2 Linecode=1P_OH_AL_2/0_Rucina_2

New Line.l(r:p6udm421-p6udt149lv) Units=km Length=0.0181511 bus1=p6udt149lv.1.2 bus2=p6udm421.1.2 switch=n enabled=y phases=2 Linecode=1P_OH_AL_2/0_Rucina_2

New Line.l(r:p6udm423-p6ulv2583) Units=km Length=0.0228595 bus1=p6udm423.1.2 bus2=p6ulv2583.1.2 switch=n enabled=y phases=2 Linecode=1P_OH_AL_2/0_Rucina_2

New Line.l(r:p6udm423-p6udt149lv) Units=km Length=0.0083961 bus1=p6udt149lv.1.2 bus2=p6udm423.1.2 switch=n enabled=y phases=2 Linecode=1P_OH_AL_2/0_Rucina_2

New Line.l(r:p6udm424-p6ulv354) Units=km Length=0.0120655 bus1=p6udm424.1.2 bus2=p6ulv354.1.2 switch=n enabled=y phases=2 Linecode=1P_UG_AL_2/0_Converse_2

New Line.l(r:p6udm424-p6udt150lv) Units=km Length=0.0268455 bus1=p6udt150lv.1.2 bus2=p6udm424.1.2 switch=n enabled=y phases=2 Linecode=1P_UG_AL_2/0_Converse_2

New Line.l(r:p6udm425-p6ulv355) Units=km Length=0.0168148 bus1=p6udm425.1.2 bus2=p6ulv355.1.2 switch=n enabled=y phases=2 Linecode=1P_UG_AL_1/0_Brenau_2

New Line.l(r:p6udm425-p6ulv356) Units=km Length=0.0114353 bus1=p6udm425.1.2 bus2=p6ulv356.1.2 switch=n enabled=y phases=2 Linecode=1P_UG_AL_2/0_Converse_2

New Line.l(r:p6udm425-p6udt150lv) Units=km Length=0.008938950000000001 bus1=p6udt150lv.1.2 bus2=p6udm425.1.2 switch=n enabled=y phases=2 Linecode=1P_UG_AL_4/0_Sweetbriar_2

New Line.l(r:p6udt151lv-p6ulv366) Units=km Length=0.0153248 bus1=p6udt151lv.1.2 bus2=p6ulv366.1.2 switch=n enabled=y phases=2 Linecode=1P_UG_AL_1/0_Brenau_2

New Line.l(r:p6udm429-p6ulv361) Units=km Length=0.0346965 bus1=p6udm429.1.2 bus2=p6ulv361.1.2 switch=n enabled=y phases=2 Linecode=1P_UG_AL_1/0_Brenau_2

New Line.l(r:p6udm429-p6ulv363) Units=km Length=0.0141562 bus1=p6udm429.1.2 bus2=p6ulv363.1.2 switch=n enabled=y phases=2 Linecode=1P_UG_AL_1/0_Brenau_2

New Line.l(r:p6udm430-p6ulv362) Units=km Length=0.00978041 bus1=p6udm430.1.2 bus2=p6ulv362.1.2 switch=n enabled=y phases=2 Linecode=1P_UG_AL_1/0_Brenau_2

New Line.l(r:p6udm428-p6ulv358) Units=km Length=0.018731300000000003 bus1=p6udm428.1.2 bus2=p6ulv358.1.2 switch=n enabled=y phases=2 Linecode=1P_UG_AL_1/0_Brenau_2

New Line.l(r:p6udm437-p6ulv369) Units=km Length=0.00874328 bus1=p6udm437.1.2 bus2=p6ulv369.1.2 switch=n enabled=y phases=2 Linecode=1P_UG_AL_1/0_Brenau_2

New Line.l(r:p6udm427-p6ulv357) Units=km Length=0.0240371 bus1=p6udm427.1.2 bus2=p6ulv357.1.2 switch=n enabled=y phases=2 Linecode=1P_UG_AL_1/0_Brenau_2

New Line.l(r:p6udm427-p6udm437) Units=km Length=0.00959304 bus1=p6udm437.1.2 bus2=p6udm427.1.2 switch=n enabled=y phases=2 Linecode=1P_UG_AL_1/0_Brenau_2

New Line.l(r:p6udm428-p6udm437) Units=km Length=0.009583050000000001 bus1=p6udm428.1.2 bus2=p6udm437.1.2 switch=n enabled=y phases=2 Linecode=1P_UG_AL_1/0_Brenau_2

New Line.l(r:p6udm428-p6udm430) Units=km Length=0.00959252 bus1=p6udm430.1.2 bus2=p6udm428.1.2 switch=n enabled=y phases=2 Linecode=1P_UG_AL_1/0_Brenau_2

New Line.l(r:p6udm429-p6udm430) Units=km Length=0.00975628 bus1=p6udm429.1.2 bus2=p6udm430.1.2 switch=n enabled=y phases=2 Linecode=1P_UG_AL_1/0_Brenau_2

New Line.l(r:p6udm429-p6udt151lv) Units=km Length=0.00974629 bus1=p6udt151lv.1.2 bus2=p6udm429.1.2 switch=n enabled=y phases=2 Linecode=1P_UG_AL_4/0_Sweetbriar_2

New Line.l(r:p6udm432-p6ulv364) Units=km Length=0.0161037 bus1=p6udm432.1.2 bus2=p6ulv364.1.2 switch=n enabled=y phases=2 Linecode=1P_UG_AL_1/0_Brenau_2

New Line.l(r:p6udm433-p6ulv365) Units=km Length=0.0264758 bus1=p6udm433.1.2 bus2=p6ulv365.1.2 switch=n enabled=y phases=2 Linecode=1P_UG_AL_1/0_Brenau_2

New Line.l(r:p6udm433-p6ulv367) Units=km Length=0.019013500000000003 bus1=p6udm433.1.2 bus2=p6ulv367.1.2 switch=n enabled=y phases=2 Linecode=1P_UG_AL_1/0_Brenau_2

New Line.l(r:p6udm438-p6ulv382) Units=km Length=0.0342745 bus1=p6udm438.1.2 bus2=p6ulv382.1.2 switch=n enabled=y phases=2 Linecode=1P_UG_AL_1/0_Brenau_2

New Line.l(r:p6udm438-p6ulv383) Units=km Length=0.0149402 bus1=p6udm438.1.2 bus2=p6ulv383.1.2 switch=n enabled=y phases=2 Linecode=1P_UG_AL_1/0_Brenau_2

New Line.l(r:p6udm436-p6ulv368) Units=km Length=0.012878 bus1=p6udm436.1.2 bus2=p6ulv368.1.2 switch=n enabled=y phases=2 Linecode=1P_UG_AL_1/0_Brenau_2

New Line.l(r:p6udm440-p6ulv384) Units=km Length=0.027420000000000003 bus1=p6udm440.1.2 bus2=p6ulv384.1.2 switch=n enabled=y phases=2 Linecode=1P_UG_AL_1/0_Brenau_2

New Line.l(r:p6udm436-p6udm440) Units=km Length=0.00975628 bus1=p6udm436.1.2 bus2=p6udm440.1.2 switch=n enabled=y phases=2 Linecode=1P_UG_AL_1/0_Brenau_2

New Line.l(r:p6udm436-p6udm438) Units=km Length=0.00975628 bus1=p6udm438.1.2 bus2=p6udm436.1.2 switch=n enabled=y phases=2 Linecode=1P_UG_AL_1/0_Brenau_2

New Line.l(r:p6udm433-p6udm438) Units=km Length=0.00975628 bus1=p6udm433.1.2 bus2=p6udm438.1.2 switch=n enabled=y phases=2 Linecode=1P_UG_AL_1/0_Brenau_2

New Line.l(r:p6udm432-p6udm433) Units=km Length=0.00975628 bus1=p6udm432.1.2 bus2=p6udm433.1.2 switch=n enabled=y phases=2 Linecode=1P_UG_AL_1/0_Brenau_2

New Line.l(r:p6udm432-p6udt151lv) Units=km Length=0.00975628 bus1=p6udt151lv.1.2 bus2=p6udm432.1.2 switch=n enabled=y phases=2 Linecode=1P_UG_AL_2/0_Converse_2

New Line.l(r:p6udm442-p6ulv371) Units=km Length=0.012583300000000002 bus1=p6udm442.1.2 bus2=p6ulv371.1.2 switch=n enabled=y phases=2 Linecode=1P_UG_AL_1/0_Brenau_2

New Line.l(r:p6udm441-p6ulv370) Units=km Length=0.0166955 bus1=p6udm441.1.2 bus2=p6ulv370.1.2 switch=n enabled=y phases=2 Linecode=1P_UG_AL_1/0_Brenau_2

New Line.l(r:p6udm441-p6udm442) Units=km Length=0.0635389 bus1=p6udm442.1.2 bus2=p6udm441.1.2 switch=n enabled=y phases=2 Linecode=1P_UG_AL_1/0_Brenau_2

New Line.l(r:p6udm442-p6udt152lv) Units=km Length=0.0177332 bus1=p6udt152lv.1.2 bus2=p6udm442.1.2 switch=n enabled=y phases=2 Linecode=1P_UG_AL_1/0_Brenau_2

New Line.l(r:p6udm443-p6ulv2274) Units=km Length=0.007669240000000001 bus1=p6udm443.1.2 bus2=p6ulv2274.1.2 switch=n enabled=y phases=2 Linecode=1P_UG_AL_1/0_Brenau_2

New Line.l(r:p6udm444-p6ulv2275) Units=km Length=0.00755342 bus1=p6udm444.1.2 bus2=p6ulv2275.1.2 switch=n enabled=y phases=2 Linecode=1P_UG_AL_1/0_Brenau_2

New Line.l(r:p6udm445-p6ulv2276) Units=km Length=0.008930510000000001 bus1=p6udm445.1.2 bus2=p6ulv2276.1.2 switch=n enabled=y phases=2 Linecode=1P_UG_AL_1/0_Brenau_2

New Line.l(r:p6udm444-p6udm445) Units=km Length=0.0223229 bus1=p6udm444.1.2 bus2=p6udm445.1.2 switch=n enabled=y phases=2 Linecode=1P_UG_AL_1/0_Brenau_2

New Line.l(r:p6udm443-p6udm444) Units=km Length=0.00858921 bus1=p6udm443.1.2 bus2=p6udm444.1.2 switch=n enabled=y phases=2 Linecode=1P_UG_AL_1/0_Brenau_2

New Line.l(r:p6udm443-p6udt152lv) Units=km Length=0.00886262 bus1=p6udt152lv.1.2 bus2=p6udm443.1.2 switch=n enabled=y phases=2 Linecode=1P_UG_AL_2/0_Converse_2

New Line.l(r:p6udm446-p6ulv385) Units=km Length=0.024269500000000003 bus1=p6udm446.1.2 bus2=p6ulv385.1.2 switch=n enabled=y phases=2 Linecode=1P_UG_AL_1/0_Brenau_2

New Line.l(r:p6udm446-p6udt153lv) Units=km Length=0.0284245 bus1=p6udt153lv.1.2 bus2=p6udm446.1.2 switch=n enabled=y phases=2 Linecode=1P_UG_AL_1/0_Brenau_2

New Line.l(r:p6udm447-p6ulv442) Units=km Length=0.0425002 bus1=p6udm447.1.2 bus2=p6ulv442.1.2 switch=n enabled=y phases=2 Linecode=1P_UG_AL_1/0_Brenau_2

New Line.l(r:p6udm450-p6ulv3596) Units=km Length=0.013718500000000002 bus1=p6udm450.1.2 bus2=p6ulv3596.1.2 switch=n enabled=y phases=2 Linecode=1P_UG_AL_1/0_Brenau_2

New Line.l(r:p6udm447-p6udm450) Units=km Length=0.00789248 bus1=p6udm447.1.2 bus2=p6udm450.1.2 switch=n enabled=y phases=2 Linecode=1P_UG_AL_1/0_Brenau_2

New Line.l(r:p6udm447-p6udt153lv) Units=km Length=0.0249063 bus1=p6udt153lv.1.2 bus2=p6udm447.1.2 switch=n enabled=y phases=2 Linecode=1P_UG_AL_1/0_Brenau_2

New Line.l(r:p6udm448-p6ulv443) Units=km Length=0.0406633 bus1=p6udm448.1.2 bus2=p6ulv443.1.2 switch=n enabled=y phases=2 Linecode=1P_UG_AL_1/0_Brenau_2

New Line.l(r:p6udm448-p6ulv445) Units=km Length=0.00638713 bus1=p6udm448.1.2 bus2=p6ulv445.1.2 switch=n enabled=y phases=2 Linecode=1P_UG_AL_1/0_Brenau_2

New Line.l(r:p6udm448-p6udt153lv) Units=km Length=0.0900623 bus1=p6udt153lv.1.2 bus2=p6udm448.1.2 switch=n enabled=y phases=2 Linecode=1P_UG_AL_1/0_Brenau_2

New Line.l(r:p6udm451-p6ulv389) Units=km Length=0.0238438 bus1=p6udm451.1.2 bus2=p6ulv389.1.2 switch=n enabled=y phases=2 Linecode=1P_UG_AL_1/0_Brenau_2

New Line.l(r:p6udm455-p6ulv395) Units=km Length=0.00737197 bus1=p6udm455.1.2 bus2=p6ulv395.1.2 switch=n enabled=y phases=2 Linecode=1P_UG_AL_1/0_Brenau_2

New Line.l(r:p6udm457-p6ulv439) Units=km Length=0.0195161 bus1=p6udm457.1.2 bus2=p6ulv439.1.2 switch=n enabled=y phases=2 Linecode=1P_UG_AL_1/0_Brenau_2

New Line.l(r:p6udm455-p6udm457) Units=km Length=0.0139412 bus1=p6udm455.1.2 bus2=p6udm457.1.2 switch=n enabled=y phases=2 Linecode=1P_UG_AL_1/0_Brenau_2

New Line.l(r:p6udm451-p6udm455) Units=km Length=0.00723785 bus1=p6udm451.1.2 bus2=p6udm455.1.2 switch=n enabled=y phases=2 Linecode=1P_UG_AL_1/0_Brenau_2

New Line.l(r:p6udm451-p6udt154lv) Units=km Length=0.00700258 bus1=p6udt154lv.1.2 bus2=p6udm451.1.2 switch=n enabled=y phases=2 Linecode=1P_UG_AL_1/0_Brenau_2

New Line.l(r:p6udm454-p6ulv394) Units=km Length=0.007736070000000001 bus1=p6udm454.1.2 bus2=p6ulv394.1.2 switch=n enabled=y phases=2 Linecode=1P_UG_AL_1/0_Brenau_2

New Line.l(r:p6udm452-p6ulv391) Units=km Length=0.0200775 bus1=p6udm452.1.2 bus2=p6ulv391.1.2 switch=n enabled=y phases=2 Linecode=1P_UG_AL_1/0_Brenau_2

New Line.l(r:p6udm452-p6ulv398) Units=km Length=0.0351223 bus1=p6udm452.1.2 bus2=p6ulv398.1.2 switch=n enabled=y phases=2 Linecode=1P_UG_AL_1/0_Brenau_2

New Line.l(r:p6udm453-p6ulv392) Units=km Length=0.012369 bus1=p6udm453.1.2 bus2=p6ulv392.1.2 switch=n enabled=y phases=2 Linecode=1P_UG_AL_1/0_Brenau_2

New Line.l(r:p6udm452-p6udm453) Units=km Length=0.00926814 bus1=p6udm452.1.2 bus2=p6udm453.1.2 switch=n enabled=y phases=2 Linecode=1P_UG_AL_1/0_Brenau_2

New Line.l(r:p6udm452-p6udm454) Units=km Length=0.00969582 bus1=p6udm454.1.2 bus2=p6udm452.1.2 switch=n enabled=y phases=2 Linecode=1P_UG_AL_1/0_Brenau_2

New Line.l(r:p6udm454-p6udt154lv) Units=km Length=0.00700651 bus1=p6udt154lv.1.2 bus2=p6udm454.1.2 switch=n enabled=y phases=2 Linecode=1P_UG_AL_1/0_Brenau_2

New Line.l(r:p6udt155lv-p6ulv393) Units=km Length=0.0120143 bus1=p6udt155lv.1.2 bus2=p6ulv393.1.2 switch=n enabled=y phases=2 Linecode=1P_UG_AL_1/0_Brenau_2

New Line.l(r:p6udt155lv-p6ulv416) Units=km Length=0.00517607 bus1=p6udt155lv.1.2 bus2=p6ulv416.1.2 switch=n enabled=y phases=2 Linecode=1P_UG_AL_1/0_Brenau_2

New Line.l(r:p6udm460-p6ulv397) Units=km Length=0.0168683 bus1=p6udm460.1.2 bus2=p6ulv397.1.2 switch=n enabled=y phases=2 Linecode=1P_UG_AL_1/0_Brenau_2

New Line.l(r:p6udm459-p6ulv396) Units=km Length=0.0108366 bus1=p6udm459.1.2 bus2=p6ulv396.1.2 switch=n enabled=y phases=2 Linecode=1P_UG_AL_1/0_Brenau_2

New Line.l(r:p6udm459-p6udm460) Units=km Length=0.00926439 bus1=p6udm460.1.2 bus2=p6udm459.1.2 switch=n enabled=y phases=2 Linecode=1P_UG_AL_1/0_Brenau_2

New Line.l(r:p6udm461-p6ulv411) Units=km Length=0.007424280000000001 bus1=p6udm461.1.2 bus2=p6ulv411.1.2 switch=n enabled=y phases=2 Linecode=1P_UG_AL_1/0_Brenau_2

New Line.l(r:p6udm460-p6udm461) Units=km Length=0.0634983 bus1=p6udm460.1.2 bus2=p6udm461.1.2 switch=n enabled=y phases=2 Linecode=1P_UG_AL_1/0_Brenau_2

New Line.l(r:p6udm460-p6udt155lv) Units=km Length=0.0207405 bus1=p6udt155lv.1.2 bus2=p6udm460.1.2 switch=n enabled=y phases=2 Linecode=1P_UG_AL_1/0_Brenau_2

New Line.l(r:p6udm462-p6ulv415) Units=km Length=0.00948424 bus1=p6udm462.1.2 bus2=p6ulv415.1.2 switch=n enabled=y phases=2 Linecode=1P_UG_AL_1/0_Brenau_2

New Line.l(r:p6udm464-p6ulv419) Units=km Length=0.00398848 bus1=p6udm464.1.2 bus2=p6ulv419.1.2 switch=n enabled=y phases=2 Linecode=1P_UG_AL_1/0_Brenau_2

New Line.l(r:p6udm465-p6ulv420) Units=km Length=0.00295677 bus1=p6udm465.1.2 bus2=p6ulv420.1.2 switch=n enabled=y phases=2 Linecode=1P_UG_AL_1/0_Brenau_2

New Line.l(r:p6udm464-p6udm465) Units=km Length=0.021654 bus1=p6udm464.1.2 bus2=p6udm465.1.2 switch=n enabled=y phases=2 Linecode=1P_UG_AL_1/0_Brenau_2

New Line.l(r:p6udm462-p6udm464) Units=km Length=0.0229525 bus1=p6udm462.1.2 bus2=p6udm464.1.2 switch=n enabled=y phases=2 Linecode=1P_UG_AL_1/0_Brenau_2

New Line.l(r:p6udm462-p6udt155lv) Units=km Length=0.022072000000000005 bus1=p6udt155lv.1.2 bus2=p6udm462.1.2 switch=n enabled=y phases=2 Linecode=1P_UG_AL_1/0_Brenau_2

New Line.l(r:p6udt156lv-p6ulv406) Units=km Length=0.0322575 bus1=p6udt156lv.1.2 bus2=p6ulv406.1.2 switch=n enabled=y phases=2 Linecode=1P_UG_AL_1/0_Brenau_2

New Line.l(r:p6udt156lv-p6ulv407) Units=km Length=0.00929418 bus1=p6udt156lv.1.2 bus2=p6ulv407.1.2 switch=n enabled=y phases=2 Linecode=1P_UG_AL_1/0_Brenau_2

New Line.l(r:p6udm469-p6ulv417) Units=km Length=0.014787900000000001 bus1=p6udm469.1.2 bus2=p6ulv417.1.2 switch=n enabled=y phases=2 Linecode=1P_UG_AL_1/0_Brenau_2

New Line.l(r:p6udm466-p6ulv405) Units=km Length=0.0221947 bus1=p6udm466.1.2 bus2=p6ulv405.1.2 switch=n enabled=y phases=2 Linecode=1P_UG_AL_1/0_Brenau_2

New Line.l(r:p6udm466-p6udm469) Units=km Length=0.00852371 bus1=p6udm469.1.2 bus2=p6udm466.1.2 switch=n enabled=y phases=2 Linecode=1P_UG_AL_1/0_Brenau_2

New Line.l(r:p6udm469-p6udt156lv) Units=km Length=0.00852371 bus1=p6udt156lv.1.2 bus2=p6udm469.1.2 switch=n enabled=y phases=2 Linecode=1P_UG_AL_1/0_Brenau_2

New Line.l(r:p6udm470-p6ulv418) Units=km Length=0.0171374 bus1=p6udm470.1.2 bus2=p6ulv418.1.2 switch=n enabled=y phases=2 Linecode=1P_UG_AL_1/0_Brenau_2

New Line.l(r:p6udm470-p6udt156lv) Units=km Length=0.00979809 bus1=p6udt156lv.1.2 bus2=p6udm470.1.2 switch=n enabled=y phases=2 Linecode=1P_UG_AL_1/0_Brenau_2

New Line.l(r:p6udm471-p6ulv409) Units=km Length=0.010885400000000002 bus1=p6udm471.1.2 bus2=p6ulv409.1.2 switch=n enabled=y phases=2 Linecode=1P_UG_AL_1/0_Brenau_2

New Line.l(r:p6udm472-p6ulv410) Units=km Length=0.0141328 bus1=p6udm472.1.2 bus2=p6ulv410.1.2 switch=n enabled=y phases=2 Linecode=1P_UG_AL_1/0_Brenau_2

New Line.l(r:p6udm473-p6ulv412) Units=km Length=0.00652203 bus1=p6udm473.1.2 bus2=p6ulv412.1.2 switch=n enabled=y phases=2 Linecode=1P_UG_AL_1/0_Brenau_2

New Line.l(r:p6udm472-p6udm473) Units=km Length=0.00830617 bus1=p6udm472.1.2 bus2=p6udm473.1.2 switch=n enabled=y phases=2 Linecode=1P_UG_AL_1/0_Brenau_2

New Line.l(r:p6udm471-p6udm472) Units=km Length=0.0166023 bus1=p6udm471.1.2 bus2=p6udm472.1.2 switch=n enabled=y phases=2 Linecode=1P_UG_AL_1/0_Brenau_2

New Line.l(r:p6udm471-p6udt157lv) Units=km Length=0.026240600000000003 bus1=p6udt157lv.1.2 bus2=p6udm471.1.2 switch=n enabled=y phases=2 Linecode=1P_UG_AL_2/0_Converse_2

New Line.l(r:p6udm474-p6ulv2580) Units=km Length=0.0125749 bus1=p6udm474.1.2 bus2=p6ulv2580.1.2 switch=n enabled=y phases=2 Linecode=1P_UG_AL_4/0_Sweetbriar_2

New Line.l(r:p6udm474-p6udt157lv) Units=km Length=0.0549168 bus1=p6udt157lv.1.2 bus2=p6udm474.1.2 switch=n enabled=y phases=2 Linecode=1P_UG_AL_4/0_Sweetbriar_2

New Line.l(r:p6udm475-p6ulv413) Units=km Length=0.0169246 bus1=p6udm475.1.2 bus2=p6ulv413.1.2 switch=n enabled=y phases=2 Linecode=1P_UG_AL_1/0_Brenau_2

New Line.l(r:p6udm475-p6udt158lv) Units=km Length=0.0544955 bus1=p6udt158lv.1.2 bus2=p6udm475.1.2 switch=n enabled=y phases=2 Linecode=1P_OH_AL_4/0_Zuzara_2

New Line.l(r:p6udm476-p6ulv414) Units=km Length=0.014764 bus1=p6udm476.1.2 bus2=p6ulv414.1.2 switch=n enabled=y phases=2 Linecode=1P_OH_AL_2/0_Rucina_2

New Line.l(r:p6udm476-p6udt158lv) Units=km Length=0.0350076 bus1=p6udt158lv.1.2 bus2=p6udm476.1.2 switch=n enabled=y phases=2 Linecode=1P_OH_AL_4/0_Zuzara_2

New Line.l(r:p6udm477-p6ulv2579) Units=km Length=0.0142462 bus1=p6udm477.1.2 bus2=p6ulv2579.1.2 switch=n enabled=y phases=2 Linecode=1P_OH_AL_2/0_Rucina_2

...